/*--------------------------------*- C++ -*----------------------------------*\
| =========                 |                                                 |
| \\      /  F ield         | OpenFOAM: The Open Source CFD Toolbox           |
|  \\    /   O peration     | Version:  v2012                                 |
|   \\  /    A nd           | Website:  www.openfoam.com                      |
|    \\/     M anipulation  |                                                 |
\*---------------------------------------------------------------------------*/
FoamFile
{
    version     2.0;
    format      ascii;
    class       dictionary;
    location    "constant";
    object      turbulenceProperties;
}
// * * * * * * * * * * * * * * * * * * * * * * * * * * * * * * * * * * * * * //

simulationType LES;

LES
{
    LESModel            WALE;//Smagorinsky; SpalartAllmarasIDDES;
    turbulence          on;
    printCoeffs         on;
	Ck					0.094;
	Cw					0.325;
    delta               cubeRootVol;//vanDriest;
    cubeRootVolCoeffs
    {
        deltaCoeff      1;//2.2;
    }

    //vanDriestCoeffs
    //{
    //    delta           cubeRootVol;
    //    cubeRootVolCoeffs
    //    {
    //        deltaCoeff      1.0;
    //    }
    //}

//SmagorinskyCoeffs
//{
//Ck 0.094;
//Ce 1.048;
//}
}


// ************************************************************************* //
